
&HEAD CHID='sauna' /


&TIME T_END=	7200. /


&DUMP 	DT_SLCF=60.
	DT_BNDF=60.
	DT_PL3D=20000. 
	DT_DEVC=1. /

&MISC SUPPRESSION=.FALSE. 
			HUMIDITY=70./

&DEVC ID='TIMER', XYZ= 0.5 0.5 0.5, QUANTITY='TIME' / chrono

&PROP ID='heat_gauge' GAUGE_TEMPERATURE=40. /
	

MESH

&MESH XB=0. 2.8		0. 3.8		-0.1 2.45	IJK=56,76,51	/ SAUNA MESH
MESH XB=0.7 1.1 	2.8 3.20	2.4 2.45	IJK=8,8,1	/ STACK MESH


WALLS

&OBST XB=0.1  0.15      0. 3.65  	0.0  2.3 	SURF_ID6='PAROI_BOIS_2','PAROI_BOIS_1','CHEMINEE_CALO','CHEMINEE_CALO','CHEMINEE_CALO','CHEMINEE_CALO' /		LEFT WALL
&OBST XB=2.65  2.7      0. 3.65  	0.0  1.85 	SURF_ID6='PAROI_BOIS_1','PAROI_BOIS_2','CHEMINEE_CALO','CHEMINEE_CALO','CHEMINEE_CALO','CHEMINEE_CALO' /		RIGHT WALL
&OBST XB=2.65  2.7      0. 3.65  	2.  2.3 	SURF_ID6='PAROI_BOIS_1','PAROI_BOIS_2','CHEMINEE_CALO','CHEMINEE_CALO','CHEMINEE_CALO','CHEMINEE_CALO' /
&OBST XB=2.65  2.7      0. 2.5  	1.85 2. 	SURF_ID6='PAROI_BOIS_1','PAROI_BOIS_2','CHEMINEE_CALO','CHEMINEE_CALO','CHEMINEE_CALO','CHEMINEE_CALO' /	
&OBST XB=2.65  2.7      2.65 3.65  	1.85 2. 	SURF_ID6='PAROI_BOIS_1','PAROI_BOIS_2','CHEMINEE_CALO','CHEMINEE_CALO','CHEMINEE_CALO','CHEMINEE_CALO' /
&OBST XB=0.15  2.65      3.65 3.7  	0.0  2.3 	SURF_ID6='CHEMINEE_CALO','CHEMINEE_CALO','PAROI_BOIS_1','PAROI_BOIS_2','CHEMINEE_CALO','CHEMINEE_CALO' /		BACK WALL
&OBST XB=0.15  0.5      0.1 0.15  	0.0  2.3 	SURF_ID6='CHEMINEE_CALO','CHEMINEE_CALO','PAROI_BOIS_2','PAROI_BOIS_1','CHEMINEE_CALO','CHEMINEE_CALO' /		FRONT WALL
&OBST XB=1.2  2.65      0.1 0.15  	0.0  2.3 	SURF_ID6='CHEMINEE_CALO','CHEMINEE_CALO','PAROI_BOIS_2','PAROI_BOIS_1','CHEMINEE_CALO','CHEMINEE_CALO' /	
&OBST XB=0.5  1.2      0.1 0.15  	1.9  2.3 	SURF_ID6='CHEMINEE_CALO','CHEMINEE_CALO','PAROI_BOIS_2','PAROI_BOIS_1','CHEMINEE_CALO','CHEMINEE_CALO' /	
&OBST XB=-1.  3.      -1. 4.  	2.4  2.45 		SURF_ID6='CHEMINEE_CALO','CHEMINEE_CALO','CHEMINEE_CALO','CHEMINEE_CALO','PAROI_BOIS_1','PAROI_BOIS_2' /		PRESSURE SEPARATOR
&OBST XB=0.15  2.65      0.15 3.65  	2.3  2.35 	SURF_ID6='CHEMINEE_CALO','CHEMINEE_CALO','CHEMINEE_CALO','CHEMINEE_CALO','PAROI_BOIS_1','PAROI_BOIS_2' /		CEILING
&OBST XB=0. 2.8 	0. 3.8  	-0.05 0. 	SURF_ID='STRUCTURE'									 		/		FLOOR	


&OBST XB=0.5 1.2      0.15 0.15  	0. 1.9	 	SURF_ID='PORTE' COLOR='INVISIBLE' /		SAUNA DOOR


STOVE

&OBST XB=0.85 0.95 3.05 3.05   0.7 0.75  	SURF_ID='PIPE' 	/ SORTIE ARRIERE
&OBST XB=0.85 0.95 2.95 2.95   0.7 0.75  	SURF_ID='PIPE' 	/ SORTIE AVANT
&OBST XB=0.85 0.9 2.95 2.95   0.6 0.7  		SURF_ID='PIPE' 	/ SORTIE AVANT
&OBST XB=0.85 0.85 2.95 3.05   0.75 0.8  	SURF_ID='PIPE' 	/ SORTIE GAUCHE
&OBST XB=0.95 0.95 2.95 3.05   0.75 0.8  	SURF_ID='PIPE' 	/ SORTIE DROITE
&OBST XB=0.85 0.95 2.95 3.05   0.6 0.6  	SURF_ID='PIPE' 	/ SORTIE BAS

&OBST XB=0.75 0.75 2.7 2.75   0.6 0.7  SURF_ID='PIPE' 	/ CONDUIT GAUCHE HORIZONTAL GAUCHE 
&OBST XB=0.75 0.75 2.8 2.85   0.6 0.7  SURF_ID='PIPE' 	/ CONDUIT GAUCHE HORIZONTAL GAUCHE 
&OBST XB=0.75 0.75 2.9 2.95   0.6 0.7  SURF_ID='PIPE' 	/ CONDUIT GAUCHE HORIZONTAL GAUCHE 
&OBST XB=0.75 0.75 3.0 3.05   0.6 0.7  SURF_ID='PIPE' 	/ CONDUIT GAUCHE HORIZONTAL GAUCHE 

&OBST XB=0.85 0.85 2.65 2.95   0.6 0.7  SURF_ID='PIPE' 	/ CONDUIT GAUCHE HORIZONTAL DROITE
&OBST XB=0.75 0.85 2.75 3.05   0.6 0.6  SURF_ID='PIPE' 	/ CONDUIT GAUCHE HORIZONTAL BAS

&OBST XB=0.75 0.85 2.75 2.8   0.7 0.7  SURF_ID='PIPE' 	/ CONDUIT GAUCHE HORIZONTAL HAUT
&OBST XB=0.75 0.85 2.9 2.95   0.7 0.7  SURF_ID='PIPE' 	/ CONDUIT GAUCHE HORIZONTAL HAUT

&OBST XB=0.75 0.85 3.05 3.05   0.6 0.7  SURF_ID='PIPE' 	/ CONDUIT GAUCHE HORIZONTAL FOND
&OBST XB=0.8 0.85 2.65 2.65   0.6 0.7  SURF_ID='PIPE' 	/ CONDUIT GAUCHE HORIZONTAL AVANT

&OBST XB=0.95 0.95 2.65 2.95   0.6 0.7  SURF_ID='PIPE' 	/ CONDUIT DROIT HORIZONTAL GAUCHE
&OBST XB=1.05 1.05 2.7 2.75   0.6 0.7  SURF_ID='PIPE' 	/ CONDUIT DROIT HORIZONTAL DROITE
&OBST XB=1.05 1.05 2.8 2.85   0.6 0.7  SURF_ID='PIPE' 	/ CONDUIT DROIT HORIZONTAL DROITE
&OBST XB=1.05 1.05 2.9 2.95   0.6 0.7  SURF_ID='PIPE' 	/ CONDUIT DROIT HORIZONTAL DROITE
&OBST XB=1.05 1.05 3.0 3.05   0.6 0.7  SURF_ID='PIPE' 	/ CONDUIT DROIT HORIZONTAL DROITE
&OBST XB=0.95 1.05 2.75 3.05   0.6 0.6  SURF_ID='PIPE' 	/ CONDUIT DROIT HORIZONTAL BAS
&OBST XB=0.95 1.05 2.75 2.8   0.7 0.7  SURF_ID='PIPE' 	/ CONDUIT DROIT HORIZONTAL HAUT
&OBST XB=0.95 1.05 2.9 2.95   0.7 0.7  SURF_ID='PIPE' 	/ CONDUIT DROIT HORIZONTAL HAUT
&OBST XB=0.95 1.05 3.05 3.05   0.6 0.7  SURF_ID='PIPE' 	/ CONDUIT DROIT HORIZONTAL FOND
&OBST XB=0.95 1.0 2.65 2.65   0.6 0.7  SURF_ID='PIPE' 	/ CONDUIT DROIT HORIZONTAL AVANT

&OBST XB=0.75 0.75 2.65 2.75   0.5 0.6  SURF_ID='PIPE' 	/ CONDUIT GAUCHE VERTICAL GAUCHE
&OBST XB=0.75 0.75 2.7 2.75   0.45 0.5  SURF_ID='PIPE' 	/ CONDUIT GAUCHE VERTICAL GAUCHE
&OBST XB=0.85 0.85 2.65 2.75   0.45 0.6  SURF_ID='PIPE' 	/ CONDUIT GAUCHE VERTICAL DROITE
&OBST XB=0.75 0.85 2.65 2.65   0.5 0.6  SURF_ID='PIPE' 	/ CONDUIT GAUCHE VERTICAL AVANT
&OBST XB=0.75 0.85 2.75 2.75   0.45 0.6  SURF_ID='PIPE' 	/ CONDUIT GAUCHE VERTICAL ARRIERE

&OBST XB=0.95 0.95 2.65 2.75   0.45 0.6  SURF_ID='PIPE' / CONDUIT DROIT VERTICAL GAUCHE
&OBST XB=1.05 1.05 2.65 2.75   0.5 0.6  SURF_ID='PIPE' 	/ CONDUIT DROIT VERTICAL DROITE
&OBST XB=1.05 1.05 2.7 2.75   0.45 0.5  SURF_ID='PIPE' 	/ CONDUIT DROIT VERTICAL DROITE
&OBST XB=0.95 1.05 2.65 2.65   0.5 0.6  SURF_ID='PIPE' 	/ CONDUIT DROIT VERTICAL AVANT
&OBST XB=0.95 1.05 2.75 2.75   0.45 0.6  SURF_ID='PIPE' 	/ CONDUIT DROIT VERTICAL ARRIERE

&OBST XB=0.85 0.95 2.65 2.65   0.35 0.45  SURF_ID='PIPE' 	/ BLOC HORIZONTAL AVANT
&OBST XB=0.75 1.05 3.1 3.1   0.35 0.45  SURF_ID='PIPE' 		/ BLOC HORIZONTAL ARRIERE

&OBST XB=0.75 0.75 2.7 2.75   0.35 0.45  SURF_ID='PIPE' 	/ BLOC HORIZONTAL GAUCHE
&OBST XB=0.75 0.75 2.8 2.85   0.35 0.45  SURF_ID='PIPE' 	/ BLOC HORIZONTAL GAUCHE
&OBST XB=0.75 0.75 2.9 2.95   0.35 0.45  SURF_ID='PIPE' 	/ BLOC HORIZONTAL GAUCHE
&OBST XB=0.75 0.75 3.0 3.05   0.35 0.45  SURF_ID='PIPE' 	/ BLOC HORIZONTAL GAUCHE

&OBST XB=1.05 1.05 2.7 2.75   0.35 0.45  SURF_ID='PIPE' 	/ BLOC HORIZONTAL DROIT
&OBST XB=1.05 1.05 2.8 2.85   0.35 0.45  SURF_ID='PIPE' 	/ BLOC HORIZONTAL DROIT
&OBST XB=1.05 1.05 2.9 2.95   0.35 0.45  SURF_ID='PIPE' 	/ BLOC HORIZONTAL DROIT
&OBST XB=1.05 1.05 3.0 3.05   0.35 0.45  SURF_ID='PIPE' 	/ BLOC HORIZONTAL DROIT

&OBST XB=0.75 1.05 2.65 2.95   0.35 0.35  SURF_ID='PIPE' 	/ BLOC HORIZONTAL BAS
&OBST XB=0.75 1.05 2.75 2.8   0.45 0.45  SURF_ID='PIPE' 	/ BLOC HORIZONTAL HAUT 
&OBST XB=0.75 1.05 2.9 2.95   0.45 0.45  SURF_ID='PIPE' 	/ BLOC HORIZONTAL HAUT 
&OBST XB=0.75 1.05 3.05 3.1   0.45 0.45  SURF_ID='PIPE' 	/ BLOC HORIZONTAL HAUT 

&OBST XB=0.7 1.1 2.55 2.6   0.35 0.35  SURF_ID='PIPE' 		/ FURNACE HAUT AVANT
&OBST XB=0.85 0.95 2.6 2.65   0.35 0.35  SURF_ID='PIPE' 	/ FURNACE HAUT AVANT
OBST XB=0.7 0.75 2.65 3.1   0.35 0.35  SURF_ID='PIPE' 		/ FURNACE HAUT GAUCHE
OBST XB=1.05 1.1 2.65 3.1   0.35 0.35  SURF_ID='PIPE' 		/ FURNACE HAUT DROITE
&OBST XB=0.75 1.05 3.1 3.1   0.15 0.35  SURF_ID='PIPE' 		/ FURNACE ARRIERE
&OBST XB=0.75 0.75 2.55 3.1   0.15 0.35  SURF_ID='PIPE' 	/ FURNACE GAUCHE
&OBST XB=1.05 1.05 2.55 3.1   0.15 0.35  SURF_ID='PIPE' 	/ FURNACE DROITE

&OBST XB=0.8 0.8 2.55 3.1   0.15 0.3  SURF_ID='PIPE' 	/ TOLES ADDITIONNELLES 
&OBST XB=1. 1. 2.55 3.1   0.15 0.3  SURF_ID='PIPE' 	/ 
OBST XB=0.8 1. 3.05 3.05   0.15 0.3  SURF_ID='PIPE' 	/ 

&OBST XB=0.75 0.8 2.55 3.1   0.3 0.3  SURF_ID='PIPE' 	/ 
&OBST XB=1. 1.05 2.55 3.1   0.3 0.3  SURF_ID='PIPE' 	/ 
OBST XB=0.8 1.0 3.05 3.1   0.3 0.3  SURF_ID='PIPE' 	/ 

&HOLE XB=0.75 0.8 2.6 2.65 0.14 0.16 				/ TROU TOLES ADDITIONNELLES
&HOLE XB=0.75 0.8 2.7 2.75 0.14 0.16 				/ TROU TOLES ADDITIONNELLES
&HOLE XB=0.75 0.8 2.8 2.85 0.14 0.16 				/ TROU TOLES ADDITIONNELLES
&HOLE XB=0.75 0.8 2.9 2.95 0.14 0.16 				/ TROU TOLES ADDITIONNELLES
&HOLE XB=0.75 0.8 3. 3.05 0.14 0.16 				/ TROU TOLES ADDITIONNELLES

&HOLE XB=0.75 0.8 2.7 2.75 0.29 0.31 				/ TROU TOLES ADDITIONNELLES
&HOLE XB=0.75 0.8 2.9 2.95 0.29 0.31 				/ TROU TOLES ADDITIONNELLES

&HOLE XB=1. 1.05 2.6 2.65 0.14 0.16 				/ TROU TOLES ADDITIONNELLES
&HOLE XB=1. 1.05 2.7 2.75 0.14 0.16 				/ TROU TOLES ADDITIONNELLES
&HOLE XB=1. 1.05 2.8 2.85 0.14 0.16 				/ TROU TOLES ADDITIONNELLES
&HOLE XB=1. 1.05 2.9 2.95 0.14 0.16 				/ TROU TOLES ADDITIONNELLES
&HOLE XB=1. 1.05 3. 3.05 0.14 0.16 				/ TROU TOLES ADDITIONNELLES

&HOLE XB=1. 1.05 2.7 2.75 0.29 0.31 				/ TROU TOLES ADDITIONNELLES
&HOLE XB=1. 1.05 2.9 2.95 0.29 0.31 				/ TROU TOLES ADDITIONNELLES

&HOLE XB=0.85 0.9 3.05 3.1 0.29 0.31 				/ TROU TOLES ADDITIONNELLES
&HOLE XB=0.9 0.95 3.05 3.1 0.14 0.16 				/ TROU TOLES ADDITIONNELLES


&OBST XB=0.75 1.05 2.55 3.1   0.15 0.15  SURF_ID='PIPE' 	/ FURNACE BAS
&OBST XB=0.7 0.75 2.55 2.55   0.15 0.35  SURF_ID='PIPE' 	/ FURNACE AVANT GAUCHE
&OBST XB=1.05 1.1 2.55 2.55   0.15 0.35  SURF_ID='PIPE' 	/ FURNACE AVANT DROITE

&OBST XB=0.75 1.05  2.55 2.55  0.15 0.35	SURF_ID='PORTE' COLOR='INVISIBLE' /		FURNACE PORTE EN VERRE

&HOLE XB=0.85 0.95 2.75 2.8 0.14 0.16 				/ GRILLE
&HOLE XB=0.85 0.95 2.85 2.9 0.14 0.16 				/ GRILLE

&HOLE XB=0.8 0.85 2.7 2.75 0.14 0.16 				/ GRILLE TROU GAUCHE 
&HOLE XB=0.8 0.85 2.8 2.85 0.14 0.16 				/ GRILLE TROU GAUCHE 
&HOLE XB=0.8 0.85 2.9 2.95 0.14 0.16 				/ GRILLE TROU GAUCHE 

&HOLE XB=0.95 1. 2.7 2.75 0.14 0.16 				/ GRILLE TROU DROIT 
&HOLE XB=0.95 1. 2.8 2.85 0.14 0.16 				/ GRILLE TROU DROIT 
&HOLE XB=0.95 1. 2.9 2.95 0.14 0.16 				/ GRILLE TROU DROIT 

&OBST XB=0.75 1.05 2.55 2.55   0.05 0.15  SURF_ID='PIPE' 	/ ASH PAN AVANT
&OBST XB=0.75 1.05 3.1 3.1   0.05 0.15  SURF_ID='PIPE' 		/ ASH PAN ARRIERE
&OBST XB=0.75 1.05 2.55 3.1   0.05 0.05  SURF_ID='PIPE' 	/ ASH PAN BAS
&OBST XB=0.75 0.75 2.55 3.1   0.05 0.15  SURF_ID='PIPE' 	/ ASH PAN GAUCHE
&OBST XB=1.05 1.05 2.55 3.1   0.05 0.15  SURF_ID='PIPE' 	/ ASH PAN DROIT

&HOLE XB=0.9 0.95 2.54 2.56 0.05 0.1 				/ ENTREE ASH PAN

&OBST XB=0.7 1.1 2.6 2.6 0.5 0.6 	SURF_ID='POELE_INT'	/ ENCEINTE INTERIEURE AVANT
&OBST XB=0.95 1. 2.6 2.6 0.6 0.8 	SURF_ID='POELE_INT'	/ ENCEINTE INTERIEURE AVANT
&OBST XB=1.05 1.1 2.6 2.6 0.6 0.75 	SURF_ID='POELE_INT'	/ ENCEINTE INTERIEURE AVANT
&OBST XB=0.85 0.95 2.6 2.6 0.35 0.5 	SURF_ID='POELE_INT'	/ ENCEINTE INTERIEURE AVANT
&OBST XB=1.05 1.1 2.6 2.6 0.35 0.5 	SURF_ID='POELE_INT'	/ ENCEINTE INTERIEURE AVANT
&OBST XB=0.8 0.95 2.6 2.6 0.6 0.75 	SURF_ID='POELE_INT'	/ ENCEINTE INTERIEURE AVANT
&OBST XB=0.7 0.75 2.6 2.6 0.6 0.75 	SURF_ID='POELE_INT'	/ ENCEINTE INTERIEURE AVANT
&OBST XB=0.75 0.8 2.6 2.6 0.7 0.8 	SURF_ID='POELE_INT'	/ ENCEINTE INTERIEURE AVANT
&OBST XB=0.8 0.85 2.6 2.6 0.75 0.8 	SURF_ID='POELE_INT'	/ ENCEINTE INTERIEURE AVANT
&OBST XB=1. 1.05 2.6 2.6 0.7 0.8 	SURF_ID='POELE_INT'	/ ENCEINTE INTERIEURE AVANT

&OBST XB=0.7 0.7 2.6 2.65 0.35 0.5 	SURF_ID='POELE_INT'	/ ENCEINTE INTERIEURE GAUCHE
&OBST XB=0.7 0.7 2.7 2.75 0.35 0.5 	SURF_ID='POELE_INT'	/ ENCEINTE INTERIEURE GAUCHE
&OBST XB=0.7 0.7 2.8 2.85 0.35 0.5 	SURF_ID='POELE_INT'	/ ENCEINTE INTERIEURE GAUCHE
&OBST XB=0.7 0.7 2.9 2.95 0.35 0.5 	SURF_ID='POELE_INT'	/ ENCEINTE INTERIEURE GAUCHE
&OBST XB=0.7 0.7 3. 3.05 0.35 0.5 	SURF_ID='POELE_INT'	/ ENCEINTE INTERIEURE GAUCHE
&OBST XB=0.7 0.7 2.6 2.65 0.6 0.7 	SURF_ID='POELE_INT'	/ ENCEINTE INTERIEURE GAUCHE
&OBST XB=0.7 0.7 2.7 2.75 0.6 0.7 	SURF_ID='POELE_INT'	/ ENCEINTE INTERIEURE GAUCHE
&OBST XB=0.7 0.7 2.8 2.85 0.6 0.7 	SURF_ID='POELE_INT'	/ ENCEINTE INTERIEURE GAUCHE
&OBST XB=0.7 0.7 2.9 2.95 0.6 0.7 	SURF_ID='POELE_INT'	/ ENCEINTE INTERIEURE GAUCHE
&OBST XB=0.7 0.7 3. 3.05 0.6 0.7 	SURF_ID='POELE_INT'	/ ENCEINTE INTERIEURE GAUCHE
&OBST XB=0.7 0.7 2.6 3.1 0.5 0.6 	SURF_ID='POELE_INT'	/ ENCEINTE INTERIEURE GAUCHE
&OBST XB=0.7 0.7 2.6 3.1 0.7 0.75 	SURF_ID='POELE_INT'	/ ENCEINTE INTERIEURE GAUCHE

&OBST XB=1.1 1.1 2.6 2.65 0.35 0.5 	SURF_ID='POELE_INT'	/ ENCEINTE INTERIEURE DROITE
&OBST XB=1.1 1.1 2.7 2.75 0.35 0.5 	SURF_ID='POELE_INT'	/ ENCEINTE INTERIEURE DROITE
&OBST XB=1.1 1.1 2.8 2.85 0.35 0.5 	SURF_ID='POELE_INT'	/ ENCEINTE INTERIEURE DROITE
&OBST XB=1.1 1.1 2.9 2.95 0.35 0.5 	SURF_ID='POELE_INT'	/ ENCEINTE INTERIEURE DROITE
&OBST XB=1.1 1.1 3. 3.05 0.35 0.5 	SURF_ID='POELE_INT'	/ ENCEINTE INTERIEURE DROITE
&OBST XB=1.1 1.1 2.6 2.65 0.6 0.7 	SURF_ID='POELE_INT'	/ ENCEINTE INTERIEURE DROITE
&OBST XB=1.1 1.1 2.7 2.75 0.6 0.7 	SURF_ID='POELE_INT'	/ ENCEINTE INTERIEURE DROITE
&OBST XB=1.1 1.1 2.8 2.85 0.6 0.7 	SURF_ID='POELE_INT'	/ ENCEINTE INTERIEURE DROITE
&OBST XB=1.1 1.1 2.9 2.95 0.6 0.7 	SURF_ID='POELE_INT'	/ ENCEINTE INTERIEURE DROITE
&OBST XB=1.1 1.1 3. 3.05 0.6 0.7 	SURF_ID='POELE_INT'	/ ENCEINTE INTERIEURE DROITE
&OBST XB=1.1 1.1 2.6 3.1 0.5 0.6 	SURF_ID='POELE_INT'	/ ENCEINTE INTERIEURE DROITE
&OBST XB=1.1 1.1 2.6 3.1 0.7 0.75 	SURF_ID='POELE_INT'	/ ENCEINTE INTERIEURE DROITE

&OBST XB=0.75 0.85 3.1 3.1 0.45 0.75	SURF_ID='POELE_INT'	/ ENCEINTE INTERIEURE ARRIERE
&OBST XB=0.8 0.85 3.1 3.1 0.75 0.8	SURF_ID='POELE_INT'	/ ENCEINTE INTERIEURE ARRIERE
&OBST XB=0.85 1.0 3.1 3.1 0.45 0.6 	SURF_ID='POELE_INT'	/ ENCEINTE INTERIEURE ARRIERE
&OBST XB=0.85 0.95 3.1 3.1 0.7 0.75 	SURF_ID='POELE_INT'	/ ENCEINTE INTERIEURE ARRIERE
&OBST XB=0.95 1.0 3.1 3.1 0.6 0.8 	SURF_ID='POELE_INT'	/ ENCEINTE INTERIEURE ARRIERE
&OBST XB=1.0 1.05 3.1 3.1 0.45 0.75 	SURF_ID='POELE_INT'	/ ENCEINTE INTERIEURE ARRIERE
&OBST XB=1.05 1.1 3.1 3.1 0.5 0.6 	SURF_ID='POELE_INT'	/ ENCEINTE INTERIEURE ARRIERE
&OBST XB=1.05 1.1 3.1 3.1 0.7 0.8 	SURF_ID='POELE_INT'	/ ENCEINTE INTERIEURE ARRIERE
&OBST XB=0.75 0.75 3.1 3.1 0.35 0.45 	SURF_ID='POELE_INT'	/ ENCEINTE INTERIEURE ARRIERE
&OBST XB=0.7 0.75 3.1 3.1 0.7 0.8 	SURF_ID='POELE_INT'	/ ENCEINTE INTERIEURE ARRIERE
&OBST XB=0.7 0.75 3.1 3.1 0.5 0.6 	SURF_ID='POELE_INT'	/ ENCEINTE INTERIEURE ARRIERE
OBST XB=1.05 1.1 3.1 3.1 0.35 0.45 	SURF_ID='POELE_INT'	/ ENCEINTE INTERIEURE ARRIERE	

&OBST XB=0.65 1.15 2.55 2.55 0.35 0.8 	SURF_ID='POELE_EXT'	/ ENCEINTE EXTERIEURE AVANT
&OBST XB=0.65 0.75 2.55 2.55 0.05 0.15 	SURF_ID='POELE_EXT'	/ ENCEINTE EXTERIEURE AVANT
&OBST XB=1.05 1.15 2.55 2.55 0.05 0.15 	SURF_ID='POELE_EXT'	/ ENCEINTE EXTERIEURE AVANT
&OBST XB=0.65 0.7 2.55 2.55 0.15 0.35 	SURF_ID='POELE_EXT'	/ ENCEINTE EXTERIEURE AVANT
&OBST XB=1.1 1.15 2.55 2.55 0.15 0.35 	SURF_ID='POELE_EXT'	/ ENCEINTE EXTERIEURE AVANT
&OBST XB=0.65 1.15 3.15 3.15 0.05 0.8 	SURF_ID='POELE_EXT'	/ ENCEINTE EXTERIEURE ARRIERE
&OBST XB=0.65 0.65 2.55 3.15 0.05 0.8 	SURF_ID='POELE_EXT'	/ ENCEINTE EXTERIEURE GAUCHE
&OBST XB=1.15 1.15 2.55 3.15 0.05 0.8 	SURF_ID='POELE_EXT'	/ ENCEINTE EXTERIEURE DROITE

&HOLE XB=0.69 0.71 2.65 2.7 0.7 0.75 / TROU ENCEINTE GAUCHE
&HOLE XB=0.69 0.71 2.75 2.8 0.7 0.75 / TROU ENCEINTE GAUCHE
&HOLE XB=0.69 0.71 2.85 2.9 0.7 0.75 / TROU ENCEINTE GAUCHE
&HOLE XB=0.69 0.71 2.95 3. 0.7 0.75 / TROU ENCEINTE GAUCHE

&HOLE XB=1.09 1.11 2.65 2.7 0.7 0.75 / TROU ENCEINTE DROITE
&HOLE XB=1.09 1.11 2.75 2.8 0.7 0.75 / TROU ENCEINTE DROITE
&HOLE XB=1.09 1.11 2.85 2.9 0.7 0.75 / TROU ENCEINTE DROITE
&HOLE XB=1.09 1.11 2.95 3. 0.7 0.75 / TROU ENCEINTE DROITE

&HOLE XB=0.8 0.85 3.09 3.11 0.7 0.75 / TROU ENCEINTE ARRIERE GAUCHE
&HOLE XB=0.95 1. 3.09 3.11 0.7 0.75 / TROU ENCEINTE ARRIERE DROIT

&HOLE XB=0.8 0.9 2.59 2.61 0.7 0.75 / TROU ENCEINTE AVANT
&HOLE XB=0.95 1. 2.59 2.61 0.7 0.75 / TROU ENCEINTE AVANT

&HOLE XB=0.8 0.85 2.59 2.61 0.6 0.65 / TROU ENCEINTE AVANT
&HOLE XB=0.9 1. 2.59 2.61 0.6 0.65 / TROU ENCEINTE AVANT

&HOLE XB=0.8 0.9 2.59 2.61 0.5 0.55 / TROU ENCEINTE AVANT
&HOLE XB=0.95 1. 2.59 2.61 0.5 0.55 / TROU ENCEINTE AVANT

&OBST XB=0.65 0.7 2.55 3.15 0.8 0.8 	SURF_ID='CAP'		/ COUVERCLE GAUCHE
&OBST XB=1.1 1.15 2.55 3.15 0.8 0.8 	SURF_ID='CAP'		/ COUVERCLE DROIT
&OBST XB=0.7 1.1 2.55 2.6 0.8 0.8 	SURF_ID='CAP'		/ COUVERCLE AVANT
&OBST XB=0.7 1.1 3.1 3.15 0.8 0.8 	SURF_ID='CAP'		/ COUVERCLE ARRIERE

&OBST XB=0.65 0.7 2.55 2.55 0.0 0.05 	SURF_ID='POELE_INT'	/ PIED AVANT GAUCHE
&OBST XB=0.65 0.65 2.55 2.6 0.0 0.05 	SURF_ID='POELE_INT'	/ PIED AVANT GAUCHE

&OBST XB=0.65 0.65 3.1 3.15 0.0 0.05 	SURF_ID='POELE_INT'	/ PIED ARRIERE GAUCHE
&OBST XB=0.65 0.7 3.15 3.15 0.0 0.05 	SURF_ID='POELE_INT'	/ PIED ARRIERE GAUCHE

&OBST XB=1.15 1.15 3.1 3.15 0.0 0.05 	SURF_ID='POELE_INT'	/ PIED ARRIERE DROIT
&OBST XB=1.1 1.15 3.15 3.15 0.0 0.05 	SURF_ID='POELE_INT'	/ PIED ARRIERE DROIT

&OBST XB=1.15 1.15 2.55 2.6 0.0 0.05 	SURF_ID='POELE_INT'	/ PIED AVANT DROIT
&OBST XB=1.1 1.15 2.55 2.55 0.0 0.05 	SURF_ID='POELE_INT'	/ PIED AVANT DROIT



FIRE


&OBST XB=0.85 0.9 2.6 2.80 0.20 0.25 	SURF_ID='FOYER' 	/ 		WOOD BLOCK
&OBST XB=0.9 0.95 2.80 3. 0.20 0.25 	SURF_ID='FOYER' 	/ 		

&OBST XB=0.85 0.9 2.8 3. 0.25 0.3 	SURF_ID='FOYER' 	/ 		
&OBST XB=0.9 0.95 2.60 2.8 0.25 0.3 	SURF_ID='FOYER' 	/ 		


STONES

&OBST XB=0.85 0.95 2.65 2.75 0.45 0.5 	SURF_ID='STONES' 	/ 		ENTRE CONDUITS VERTICAUX

&OBST XB=0.75 1.05 2.80 2.9 0.45 0.5 	SURF_ID='STONES' 	/ 		SUR BLOC HORIZONTAL CENTRE
&OBST XB=0.75 1.05 2.95 3.05 0.45 0.5 	SURF_ID='STONES' 	/ 		SUR BLOC HORIZONTAL ARRIERE
	
&OBST XB=0.7 0.75 2.65 2.7 0.35 0.5 	SURF_ID='STONES' 	/ 		CONTRE BLOC HORIZONTAL GAUCHE AVANT
&OBST XB=0.7 0.75 2.75 2.8 0.35 0.5 	SURF_ID='STONES' 	/ 		CONTRE BLOC HORIZONTAL GAUCHE MILIEU
&OBST XB=0.7 0.75 2.85 2.9 0.35 0.5 	SURF_ID='STONES' 	/ 		CONTRE BLOC HORIZONTAL GAUCHE MILIEU	
&OBST XB=0.7 0.75 2.95 3.0 0.35 0.5 	SURF_ID='STONES' 	/ 		CONTRE BLOC HORIZONTAL GAUCHE MILIEU
&OBST XB=0.7 0.75 3.05 3.1 0.35 0.5 	SURF_ID='STONES' 	/ 		CONTRE BLOC HORIZONTAL GAUCHE ARRIERE

&OBST XB=1.05 1.1 2.65 2.7 0.35 0.5 	SURF_ID='STONES' 	/ 		CONTRE BLOC HORIZONTAL DROIT AVANT
&OBST XB=1.05 1.1 2.75 2.8 0.35 0.5 	SURF_ID='STONES' 	/ 		CONTRE BLOC HORIZONTAL DROIT MILIEU
&OBST XB=1.05 1.1 2.85 2.9 0.35 0.5 	SURF_ID='STONES' 	/ 		CONTRE BLOC HORIZONTAL DROIT MILIEU	
&OBST XB=1.05 1.1 2.95 3.0 0.35 0.5 	SURF_ID='STONES' 	/ 		CONTRE BLOC HORIZONTAL DROIT MILIEU
&OBST XB=1.05 1.1 3.05 3.1 0.35 0.5 	SURF_ID='STONES' 	/ 		CONTRE BLOC HORIZONTAL DROIT ARRIERE

&OBST XB=0.75 0.85 2.60 2.65 0.35 0.5 	SURF_ID='STONES' 	/ 		CONTRE CONDUIT VERTICAL GAUCHE AVANT BAS
&OBST XB=0.95 1.05 2.60 2.65 0.35 0.5 	SURF_ID='STONES' 	/ 		CONTRE CONDUIT VERTICAL DROIT AVANT BAS
&OBST XB=0.75 0.8 2.60 2.65 0.6 0.7 	SURF_ID='STONES' 	/ 		CONTRE CONDUIT VERTICAL GAUCHE AVANT HAUT
&OBST XB=1. 1.05 2.60 2.65 0.6 0.7 	SURF_ID='STONES' 	/ 		CONTRE CONDUIT VERTICAL DROIT AVANT HAUT

&OBST XB=0.75 0.85 2.65 2.75 0.7 0.75 	SURF_ID='STONES' 	/ 		SUR CONDUIT HORIZONTAL GAUCHE AVANT 
&OBST XB=0.75 0.85 2.8 2.9 0.7 0.75 	SURF_ID='STONES' 	/ 		SUR CONDUIT HORIZONTAL GAUCHE MILIEU
&OBST XB=0.75 0.85 2.95 3.05 0.7 0.75 	SURF_ID='STONES' 	/ 		SUR CONDUIT HORIZONTAL GAUCHE ARRIERE
&OBST XB=0.95 1.05 2.65 2.75 0.7 0.75 	SURF_ID='STONES' 	/ 		SUR CONDUIT HORIZONTAL DROIT AVANT 
&OBST XB=0.95 1.05 2.8 2.9 0.7 0.75 	SURF_ID='STONES' 	/ 		SUR CONDUIT HORIZONTAL DROIT MILIEU
&OBST XB=0.95 1.05 2.95 3.05 0.7 0.75 	SURF_ID='STONES' 	/ 		SUR CONDUIT HORIZONTAL DROIT ARRIERE
&OBST XB=0.9 0.95 2.7 2.75 0.55 0.7 	SURF_ID='STONES' 	/ 		CONTRE CONDUIT HORIZONTAL DROIT DROIT AVANT
&OBST XB=0.9 0.95 2.8 2.85 0.55 0.7 	SURF_ID='STONES' 	/ 		CONTRE CONDUIT HORIZONTAL DROIT DROIT MILIEU
&OBST XB=0.9 0.95 2.9 2.95 0.55 0.7 	SURF_ID='STONES' 	/ 		CONTRE CONDUIT HORIZONTAL DROIT DROIT ARRIERE

&OBST XB=0.7 0.75 2.65 2.7 0.6 0.7 	SURF_ID='STONES' 	/ 		CONTRE CONDUIT HORIZONTAL GAUCHE AVANT
&OBST XB=0.7 0.75 2.75 2.8 0.6 0.7 	SURF_ID='STONES' 	/ 		CONTRE CONDUIT HORIZONTAL GAUCHE MILIEU
&OBST XB=0.7 0.75 2.85 2.9 0.6 0.7 	SURF_ID='STONES' 	/ 		CONTRE CONDUIT HORIZONTAL GAUCHE MILIEU	
&OBST XB=0.7 0.75 2.95 3.0 0.6 0.7 	SURF_ID='STONES' 	/ 		CONTRE CONDUIT HORIZONTAL GAUCHE MILIEU
&OBST XB=0.7 0.75 3.05 3.1 0.6 0.7 	SURF_ID='STONES' 	/ 		CONTRE CONDUIT HORIZONTAL GAUCHE ARRIERE
&OBST XB=0.85 0.9 2.65 2.7 0.55 0.7 	SURF_ID='STONES' 	/ 		CONTRE CONDUIT HORIZONTAL GAUCHE DROIT AVANT
&OBST XB=0.85 0.9 2.75 2.8 0.55 0.7 	SURF_ID='STONES' 	/ 		CONTRE CONDUIT HORIZONTAL GAUCHE DROIT MILIEU
&OBST XB=0.85 0.9 2.85 2.9 0.55 0.7 	SURF_ID='STONES' 	/ 		CONTRE CONDUIT HORIZONTAL GAUCHE DROIT ARRIERE

&OBST XB=1.05 1.1 2.65 2.7 0.6 0.7 	SURF_ID='STONES' 	/ 		CONTRE CONDUIT HORIZONTAL DROIT AVANT
&OBST XB=1.05 1.1 2.75 2.8 0.6 0.7 	SURF_ID='STONES' 	/ 		CONTRE CONDUIT HORIZONTAL DROIT MILIEU
&OBST XB=1.05 1.1 2.85 2.9 0.6 0.7 	SURF_ID='STONES' 	/ 		CONTRE CONDUIT HORIZONTAL DROIT MILIEU	
&OBST XB=1.05 1.1 2.95 3.0 0.6 0.7 	SURF_ID='STONES' 	/ 		CONTRE CONDUIT HORIZONTAL DROIT MILIEU
&OBST XB=1.05 1.1 3.05 3.1 0.6 0.7 	SURF_ID='STONES' 	/ 		CONTRE CONDUIT HORIZONTAL DROIT ARRIERE

&OBST XB=0.85 0.95 3.05 3.1 0.6 0.7 	SURF_ID='STONES' 	/ 		CONTRE SORTIE ARRIERE BAS
&OBST XB=0.85 0.95 3.05 3.1 0.75 0.8 	SURF_ID='STONES' 	/ 		CONTRE SORTIE ARRIERE HAUT

&OBST XB=0.85 0.95 2.85 2.95 0.75 0.8 	SURF_ID='STONES' 	/ 		LEVITATION CENTRE CONTRE CHEMINEE
&OBST XB=0.85 0.95 2.7 2.8 0.75 0.8 	SURF_ID='STONES' 	/ 		LEVITATION CENTRE
&OBST XB=0.85 0.95 2.6 2.65 0.75 0.8 	SURF_ID='STONES' 	/ 		LEVITATION CENTRE CONTRE ENCEINTE AVANT
&OBST XB=0.7 0.75 2.6 2.7 0.75 0.8 	SURF_ID='STONES' 	/ 		LEVITATION CENTRE CONTRE ENCEINTE GAUCHE
&OBST XB=0.7 0.75 2.75 2.9 0.75 0.8 	SURF_ID='STONES' 	/ 		LEVITATION CENTRE CONTRE ENCEINTE GAUCHE
&OBST XB=0.7 0.75 2.95 3.05 0.75 0.8 	SURF_ID='STONES' 	/ 		LEVITATION CENTRE CONTRE ENCEINTE GAUCHE
&OBST XB=1.05 1.1 2.6 2.7 0.75 0.8 	SURF_ID='STONES' 	/ 		LEVITATION CENTRE CONTRE ENCEINTE DROIT
&OBST XB=1.05 1.1 2.75 2.9 0.75 0.8 	SURF_ID='STONES' 	/ 		LEVITATION CENTRE CONTRE ENCEINTE DROIT
&OBST XB=1.05 1.1 2.95 3.05 0.75 0.8 	SURF_ID='STONES' 	/ 		LEVITATION CENTRE CONTRE ENCEINTE DROIT
&OBST XB=1. 1.05 3.05 3.1 0.75 0.8 	SURF_ID='STONES' 	/ 		LEVITATION CENTRE CONTRE ENCEINTE ARRIERE DROIT
&OBST XB=0.75 0.8 3.05 3.1 0.75 0.8 	SURF_ID='STONES' 	/ 		LEVITATION CENTRE CONTRE ENCEINTE ARRIERE GAUCHE
&OBST XB=0.75 0.8 2.75 2.8 0.75 0.8 	SURF_ID='STONES' 	/ 		LEVITATION GAUCHE AVANT
&OBST XB=0.75 0.8 2.9 2.95 0.75 0.8 	SURF_ID='STONES' 	/ 		LEVITATION GAUCHE ARRIERE
&OBST XB=1. 1.05 2.75 2.8 0.75 0.8 	SURF_ID='STONES' 	/ 		LEVITATION DROIT AVANT
&OBST XB=1. 1.05 2.9 2.95 0.75 0.8 	SURF_ID='STONES' 	/ 		LEVITATION DROIT ARRIERE



STACK

INTERIOR PART

&OBST XB=0.85 0.85 2.95 3.05 0.8 1.25	SURF_ID='CHEMINEE' / PAROI GAUCHE
&OBST XB=0.95 0.95 2.95 3.05 0.8 1.25	SURF_ID='CHEMINEE' / PAROI DROITE
&OBST XB=0.85 0.95 2.95 2.95 0.8 1.25	SURF_ID='CHEMINEE' / PAROI AVANT
&OBST XB=0.85 0.95 3.05 3.05 0.8 1.25	SURF_ID='CHEMINEE' / PAROI ARRIERE

EXTERIOR PART

&OBST XB=0.8 0.85 2.9 3.1 1.25 2.3	SURF_ID='CHEMINEE_CALO' / PAROI GAUCHE
&OBST XB=0.95 1. 2.9 3.1 1.25 2.3	SURF_ID='CHEMINEE_CALO' / PAROI DROITE
&OBST XB=0.85 0.95 2.9 2.95 1.25 2.3	SURF_ID='CHEMINEE_CALO' / PAROI AVANT
&OBST XB=0.85 0.95 3.05 3.1 1.25 2.3	SURF_ID='CHEMINEE_CALO' / PAROI ARRIERE


UPPER ADIABATIC PART

&OBST XB=0.8 0.85 2.9 3.1 2.3 4.45	SURF_ID='CHEMINEE_ADIAB'  / PAROI GAUCHE
&OBST XB=0.95 1. 2.9 3.1 2.3 4.45	SURF_ID='CHEMINEE_ADIAB'  / PAROI DROITE
&OBST XB=0.85 0.95 2.9 2.95 2.3 4.45	SURF_ID='CHEMINEE_ADIAB'  / PAROI AVANT
&OBST XB=0.85 0.95 3.05 3.1 2.3 4.45	SURF_ID='CHEMINEE_ADIAB'  / PAROI ARRIERE

&HOLE XB=0.85 0.95 2.95 3.05 2.29 2.46 / TRAVERSEE PLAFOND


VENTILATION

&HOLE XB=0.1 0.2 2.95 3.1 0. 0.15 / EXHAUST

&SURF ID='SUPPLY', VOLUME_FLUX=-0.0335, COLOR='GREEN' / 
&OBST XB=2.7 2.7 2.5 2.65 1.85 2., SURF_ID='SUPPLY' /


BOUNDARY CONDITIONS

&VENT MB='XMIN' SURF_ID='OPEN' / Limite domaine libre
&VENT MB='XMAX' SURF_ID='OPEN' / Limite domaine libre
&VENT MB='YMIN' SURF_ID='OPEN' / Limite domaine libre
&VENT MB='YMAX' SURF_ID='OPEN' / Limite domaine libre 
&VENT MB='ZMAX' SURF_ID='OPEN', DYNAMIC_PRESSURE=-12. / Limite domaine libre


MATERIALS

&MATL	ID='FONTE'
	DENSITY=7200.
	EMISSIVITY=0.9
	SPECIFIC_HEAT_RAMP='RAMPE_CP_FONTE' 
	CONDUCTIVITY_RAMP='RAMPE_K_FONTE' /

&RAMP ID='RAMPE_K_FONTE', T=0.,     F=60.33 /	
&RAMP ID='RAMPE_K_FONTE', T=20.,    F=60. /	
&RAMP ID='RAMPE_K_FONTE', T=400.,   F=53.67 /
&RAMP ID='RAMPE_K_FONTE', T=1000.,  F=43.67 /	
&RAMP ID='RAMPE_K_FONTE', T=1500.,  F=35.33 /

&RAMP ID='RAMPE_CP_FONTE', T=0.,     F=0.54 /	
&RAMP ID='RAMPE_CP_FONTE', T=100.,   F=0.585 /	
&RAMP ID='RAMPE_CP_FONTE', T=200.,   F=0.630 /	
&RAMP ID='RAMPE_CP_FONTE', T=300.,   F=0.670 /	
&RAMP ID='RAMPE_CP_FONTE', T=400.,   F=0.710 /	
&RAMP ID='RAMPE_CP_FONTE', T=500.,   F=0.795 / 
&RAMP ID='RAMPE_CP_FONTE', T=1000.,  F=1.017 /	   
&RAMP ID='RAMPE_CP_FONTE', T=1500.,  F=1.259 /	   

&MATL	ID='ACIER_INOX'
	DENSITY=7978.
	EMISSIVITY=0.3
	SPECIFIC_HEAT_RAMP='RAMPE_CP_ACIER_INOX' 
	CONDUCTIVITY_RAMP='RAMPE_K_ACIER_INOX' /

&RAMP ID='RAMPE_K_ACIER_INOX', T=0.,      F=13.9 /
&RAMP ID='RAMPE_K_ACIER_INOX', T=26.85,   F=14.2 /	
&RAMP ID='RAMPE_K_ACIER_INOX', T=126.85,  F=15.8 /	
&RAMP ID='RAMPE_K_ACIER_INOX', T=326.85,  F=18.9 /	
&RAMP ID='RAMPE_K_ACIER_INOX', T=526.85,  F=21.9 /	
&RAMP ID='RAMPE_K_ACIER_INOX', T=726.85,  F=24.7 / 

&RAMP ID='RAMPE_CP_ACIER_INOX', T=0.,      F=0.474 /	
&RAMP ID='RAMPE_CP_ACIER_INOX', T=26.85,   F=0.480 /	
&RAMP ID='RAMPE_CP_ACIER_INOX', T=126.85,  F=0.513 /	
&RAMP ID='RAMPE_CP_ACIER_INOX', T=326.85,  F=0.559 /	
&RAMP ID='RAMPE_CP_ACIER_INOX', T=526.85,  F=0.585 /	
&RAMP ID='RAMPE_CP_ACIER_INOX', T=726.85,  F=0.606 /   	


&MATL	ID='BOIS'
	CONDUCTIVITY=0.13
	DENSITY=461.9
	EMISSIVITY=0.92
	SPECIFIC_HEAT=1.250 /  

&MATL	ID='BETON'
	CONDUCTIVITY=0.92
	DENSITY=2300.
	EMISSIVITY=0.94
	SPECIFIC_HEAT=0.96 /  

&MATL	ID='CALORIFUGE'
	DENSITY=20.
	EMISSIVITY=0.3
	SPECIFIC_HEAT=1.250
	CONDUCTIVITY_RAMP='RAMPE_K_CALORIFUGE'  /

&RAMP ID='RAMPE_K_CALORIFUGE', T=-20,   	F=0.0322 /
&RAMP ID='RAMPE_K_CALORIFUGE', T=0,   		F=0.0362 /
&RAMP ID='RAMPE_K_CALORIFUGE', T=20,   		F=0.0410 /
&RAMP ID='RAMPE_K_CALORIFUGE', T=40,  		F=0.0466 /
&RAMP ID='RAMPE_K_CALORIFUGE', T=60,  		F=0.0529 /
&RAMP ID='RAMPE_K_CALORIFUGE', T=80,   		F=0.0600 /
&RAMP ID='RAMPE_K_CALORIFUGE', T=100,   	F=0.0679 /
&RAMP ID='RAMPE_K_CALORIFUGE', T=120,   	F=0.0765 /
&RAMP ID='RAMPE_K_CALORIFUGE', T=140,  		F=0.0859 /
&RAMP ID='RAMPE_K_CALORIFUGE', T=160,   	F=0.0960 /
&RAMP ID='RAMPE_K_CALORIFUGE', T=180,   	F=0.1070 /
&RAMP ID='RAMPE_K_CALORIFUGE', T=200,   	F=0.1186 /
&RAMP ID='RAMPE_K_CALORIFUGE', T=220,   	F=0.1311 /
&RAMP ID='RAMPE_K_CALORIFUGE', T=240,   	F=0.1443 /
&RAMP ID='RAMPE_K_CALORIFUGE', T=260,   	F=0.1583 /
&RAMP ID='RAMPE_K_CALORIFUGE', T=280,   	F=0.1730 /
&RAMP ID='RAMPE_K_CALORIFUGE', T=300,   	F=0.1885 /
&RAMP ID='RAMPE_K_CALORIFUGE', T=320,   	F=0.2048 /
&RAMP ID='RAMPE_K_CALORIFUGE', T=340,   	F=0.2219 /
&RAMP ID='RAMPE_K_CALORIFUGE', T=360,   	F=0.2397 /
&RAMP ID='RAMPE_K_CALORIFUGE', T=380,   	F=0.2582 /
&RAMP ID='RAMPE_K_CALORIFUGE', T=400,   	F=0.2776 /
&RAMP ID='RAMPE_K_CALORIFUGE', T=420,   	F=0.2977 /
&RAMP ID='RAMPE_K_CALORIFUGE', T=440,   	F=0.3185 /
&RAMP ID='RAMPE_K_CALORIFUGE', T=460,   	F=0.3401 /
&RAMP ID='RAMPE_K_CALORIFUGE', T=480,   	F=0.3625 /
&RAMP ID='RAMPE_K_CALORIFUGE', T=500,   	F=0.3857 /

&MATL	ID='BRIQUE'
	CONDUCTIVITY=6.4
	DENSITY=1490.
	SPECIFIC_HEAT=0.98 
	EMISSIVITY=0.9 / 

&MATL	ID='VERRE'
	CONDUCTIVITY=1.
	DENSITY=2500. 
	SPECIFIC_HEAT=0.5 
	ABSORPTION_COEFFICIENT=0/ 

&MATL	ID='PAROI_CALO'
	DENSITY=60.9926
	EMISSIVITY=1
	SPECIFIC_HEAT=1.0462963
	CONDUCTIVITY=0.0504  / 


WALLS 

&SURF	ID='PAROI_BOIS_1'
	MATL_ID='BOIS','PAROI_CALO'
	THICKNESS=21e-3,75e-3
	BACKING='EXPOSED'
	RGB=201 102 0 /

&SURF	ID='PAROI_BOIS_2'
	MATL_ID='PAROI_CALO','BOIS'
	THICKNESS=75e-3,21e-3
	BACKING='EXPOSED'
	RGB=201 102 0 /

&SURF	ID='STONES'
	MATL_ID='BRIQUE'
	THICKNESS=0.05
	BACKING='EXPOSED'
	RGB=127 127 127 /

&SURF	ID='PORTE'
	MATL_ID='VERRE'
	THICKNESS=1e-2
	BACKING='EXPOSED'
	RGB=173 79 9 /

&SURF	ID='STRUCTURE'
	MATL_ID='BOIS'
	THICKNESS=21e-3
	BACKING='EXPOSED'
	RGB=167 103 38 / 

&SURF	ID='POELE'
	MATL_ID='FONTE'
	THICKNESS=2.5e-3
	BACKING='EXPOSED'  
	RGB=0 0 0 / 

&SURF	ID='CHEMINEE'
	MATL_ID='ACIER_INOX'
	THICKNESS=1e-3
	BACKING='EXPOSED'
	RGB=206 206 206 / 

&SURF	ID='CHEMINEE_CALO'
	MATL_ID='CALORIFUGE'
	THICKNESS=5e-2
	BACKING='EXPOSED'
	RGB=206 206 206 / 

&SURF	ID='CHEMINEE_ADIAB'
	ADIABATIC=.TRUE.
	RGB=206 206 206 / 

&SURF	ID='BODY'
	EMISSIVITY=0.98  
	TMP_FRONT=40.
	RGB=128 128 128 / 

&SURF	ID='PIPE'
	MATL_ID='FONTE'
	THICKNESS=3e-3
	BACKING='EXPOSED'  
	RGB=0 0 0 / 

&SURF	ID='POELE_INT'
	MATL_ID='FONTE'
	THICKNESS=1.5e-3
	BACKING='EXPOSED'  
	RGB=0 0 0 / 

&SURF	ID='POELE_EXT'
	MATL_ID='FONTE'
	THICKNESS=0.75e-3
	BACKING='EXPOSED'  
	RGB=0 0 0 / 

&SURF	ID='CAP'
	MATL_ID='FONTE'
	THICKNESS=3e-3
	BACKING='EXPOSED'  
	RGB=0 0 0 / 



FIRE

&SURF ID='FOYER'
	HRRPUA=55.52
	RAMP_Q='fire_ramp' 
	MATL_ID='BOIS'
	THICKNESS=5e-2
	BACKING='EXPOSED'
	RGB=255 0 0/


CHEMICAL REACTION

&REAC ID='BOIS' C=1. H=1.7 O=0.74 N=0.002 SOOT_YIELD=0.015 CO_YIELD=0.004 HEAT_OF_COMBUSTION=12600./

&RAMP ID='fire_ramp' T=	0	F=	0.	/
&RAMP ID='fire_ramp' T=	750	F=	0.8	/
&RAMP ID='fire_ramp' T=	1500	F=	0.8	/
&RAMP ID='fire_ramp' T=	2250	F=	3.3	/
&RAMP ID='fire_ramp' T=	3000	F=	1.45	/
&RAMP ID='fire_ramp' T=	3750	F=	3.3	/
&RAMP ID='fire_ramp' T=	4500	F=	1.6	/
&RAMP ID='fire_ramp' T=	5250	F=	0.	/



&PART ID='drops', QUANTITIES(1:3)='DROPLET_DIAMETER','DROPLET_TEMPERATURE','DROPLET_AGE',
DIAMETER=2000., SAMPLING_FACTOR=1, COLOR='BLUE', WATER=.TRUE., EVAPORATE=.TRUE. / propriétés des goutelettes d'eau

&PROP ID='nozzle', PART_ID='drops', FLOW_RATE=0.3, DROPLET_VELOCITY=0.1, SPRAY_ANGLE=0.,0. / propriétés du sprinkler
&DEVC XYZ=1.025 2.755 1., PROP_ID='nozzle', ORIENTATION=0,0,-1, QUANTITY='CONTROL', CTRL_ID='aspersion' /

&CTRL ID='aspersion', FUNCTION_TYPE='CUSTOM', INPUT_ID='TIMER', RAMP_ID='aspers' / device qui contrôle le sprinkler

&RAMP ID='aspers', T= 0., F=-1. 	/ profil temporel de l'aspersion
&RAMP ID='aspers', T= 3749., F=-1. 	/
&RAMP ID='aspers', T= 3749.5, F= -1. 	/
&RAMP ID='aspers', T= 3750., F= -1. 	/
&RAMP ID='aspers', T= 3750.5, F=-1. 	/



POST-PROCESSING

TEMPERATURE SLICES

&SLCF PBX=0.6 QUANTITY='TEMPERATURE' VECTOR=.TRUE. /
&SLCF PBX=0.7 QUANTITY='TEMPERATURE' VECTOR=.TRUE. /
&SLCF PBX=0.8 QUANTITY='TEMPERATURE' VECTOR=.TRUE. /
&SLCF PBX=0.9 QUANTITY='TEMPERATURE' VECTOR=.TRUE. /
&SLCF PBX=1. QUANTITY='TEMPERATURE' VECTOR=.TRUE. /
&SLCF PBX=1.1 QUANTITY='TEMPERATURE' VECTOR=.TRUE. /
&SLCF PBX=1.2 QUANTITY='TEMPERATURE' VECTOR=.TRUE. /